%mem=1GB
%nprocshared=1
%chk=0_mm_20.chk
#p Amber=(SoftFirst,Print) geom=nocrowd nosymm

Title

0 1
C-C-+0.299289 -0.589005 -0.071084 -0.280020
O-OH--0.289770 -1.496997 -0.407724 0.718836
C-CT--0.035454 0.755826 -0.732249 -0.039167
H-HC-+0.090426 0.507967 -1.720910 0.383988
H-HC-+0.095387 0.978217 -1.147597 -1.053882
N-N3--0.336253 1.731957 0.199840 0.516331
H-H-+0.142619 1.862359 1.049232 -0.032276
H-H-+0.128282 2.597921 -0.216717 0.850425
O-O2--0.308037 -0.767052 0.948861 -0.970646
H-HO-+0.213510 -2.299167 0.174760 0.631363

NonBon 3 1 0 0 0.000 0.000 0.500 0.000 0.000 -1.2
!SMARTFIELD FF
!Bonds
HrmStr1 C CT 294.154 1.509
HrmStr1 C O2 946.077 1.203
HrmStr1 C OH 431.528 1.351
HrmStr1 CT HC 358.048 1.096
HrmStr1 CT N3 380.823 1.452
HrmStr1 N3 H 506.009 1.011
HrmStr1 OH HO 566.757 0.968
!Angles
HrmBnd1 C CT HC 46.411 106.887
HrmBnd1 C CT N3 59.928 110.607
HrmBnd1 C OH HO 56.552 107.226
HrmBnd1 CT C O2 62.831 125.239
HrmBnd1 CT N3 H 52.602 110.709
HrmBnd1 H N3 H 47.092 108.625
HrmBnd1 HC CT HC 44.676 106.223
HrmBnd1 HC CT N3 52.453 112.936
HrmBnd1 OH C CT 67.917 111.715
HrmBnd1 OH C O2 91.404 123.018
!Torsions
AmbTrs C CT N3 H 0 180 0 0 0.00 25.63 0.00 0. 6.0
AmbTrs CT C OH HO 0 180 0 0 0.00 14.5 0.00 0. 2.0
AmbTrs HC CT N3 H 0 0 0 0 0.00 16.93 0.00 0. 6.0
AmbTrs O2 C CT HC 0 0 0 0 0.00 14.50 0.00 0. 6.0
AmbTrs O2 C CT N3 0 0 0 0 0.00 14.50 0.00 0. 6.0
AmbTrs O2 C OH HO 0 0 0 0 0.00 14.5 0.00 0. 2.0
AmbTrs OH C CT HC 0 0 0 0 0.0 0.0 0.0 0.0 6.0
AmbTrs OH C CT N3 0 0 0 0 0.00 14.50 0.00 0. 6.0

