%mem=1GB
%nprocshared=1
%chk=1_mm_60.chk
#p Amber=(SoftFirst,Print) geom=nocrowd nosymm

Title

0 1
C-C-+0.299289 -0.383762 -0.012353 -0.189605
O-OH--0.289770 -1.573489 -0.721252 -0.065102
C-CT--0.035454 0.751179 -0.695711 0.558660
H-HC-+0.090426 0.243908 -0.586927 1.546412
H-HC-+0.095387 0.791962 -1.739154 0.197426
N-N3--0.336253 1.934325 0.108325 0.340252
H-H-+0.142619 2.445594 -0.195882 -0.488006
H-H-+0.128282 1.671115 1.077216 0.161955
O-O2--0.308037 -0.302520 1.065984 -0.805287
H-HO-+0.213510 -2.296287 -0.223834 -0.531754

NonBon 3 1 0 0 0.000 0.000 0.500 0.000 0.000 -1.2
!SMARTFIELD FF
!Bonds
HrmStr1 C CT 294.154 1.509
HrmStr1 C O2 946.077 1.203
HrmStr1 C OH 431.528 1.351
HrmStr1 CT HC 358.048 1.096
HrmStr1 CT N3 380.823 1.452
HrmStr1 N3 H 506.009 1.011
HrmStr1 OH HO 566.757 0.968
!Angles
HrmBnd1 C CT HC 46.411 106.887
HrmBnd1 C CT N3 59.928 110.607
HrmBnd1 C OH HO 56.552 107.226
HrmBnd1 CT C O2 62.831 125.239
HrmBnd1 CT N3 H 52.602 110.709
HrmBnd1 H N3 H 47.092 108.625
HrmBnd1 HC CT HC 44.676 106.223
HrmBnd1 HC CT N3 52.453 112.936
HrmBnd1 OH C CT 67.917 111.715
HrmBnd1 OH C O2 91.404 123.018
!Torsions
AmbTrs C CT N3 H 0 180 0 0 0.00 25.63 0.00 0. 6.0
AmbTrs CT C OH HO 0 180 0 0 0.00 14.5 0.00 0. 2.0
AmbTrs HC CT N3 H 0 0 0 0 0.0 0.0 0.0 0.0 6.0
AmbTrs O2 C CT HC 0 0 0 0 0.00 14.50 0.00 0. 6.0
AmbTrs O2 C CT N3 0 0 0 0 0.00 14.50 0.00 0. 6.0
AmbTrs O2 C OH HO 0 0 0 0 0.00 14.5 0.00 0. 2.0
AmbTrs OH C CT HC 0 0 0 0 0.00 14.50 0.00 0. 6.0
AmbTrs OH C CT N3 0 0 0 0 0.00 14.50 0.00 0. 6.0

