%mem=1GB
%nprocshared=1
%chk=2_mm_0.chk
#p Amber=(SoftFirst,Print) geom=nocrowd nosymm

Title

0 1
C-C-+0.299289 -0.556472 0.121153 -0.012201
O-OH--0.289770 -1.646102 -0.737270 -0.076302
C-CT--0.035454 0.726316 -0.635229 0.252595
H-HC-+0.090426 0.833294 -1.178370 1.229299
H-HC-+0.095387 0.513006 -1.411385 -0.507473
N-N3--0.336253 1.855697 0.165291 -0.170428
H-H-+0.142619 1.966787 0.958064 0.471471
H-H-+0.128282 2.722354 -0.364757 -0.138148
O-O2--0.308037 -0.662425 1.356811 -0.116867
H-HO-+0.213510 -2.470430 -0.197896 -0.206996

NonBon 3 1 0 0 0.000 0.000 0.500 0.000 0.000 -1.2
!SMARTFIELD FF
!Bonds
HrmStr1 C CT 294.154 1.509
HrmStr1 C O2 946.077 1.203
HrmStr1 C OH 431.528 1.351
HrmStr1 CT HC 358.048 1.096
HrmStr1 CT N3 380.823 1.452
HrmStr1 N3 H 506.009 1.011
HrmStr1 OH HO 566.757 0.968
!Angles
HrmBnd1 C CT HC 46.411 106.887
HrmBnd1 C CT N3 59.928 110.607
HrmBnd1 C OH HO 56.552 107.226
HrmBnd1 CT C O2 62.831 125.239
HrmBnd1 CT N3 H 52.602 110.709
HrmBnd1 H N3 H 47.092 108.625
HrmBnd1 HC CT HC 44.676 106.223
HrmBnd1 HC CT N3 52.453 112.936
HrmBnd1 OH C CT 67.917 111.715
HrmBnd1 OH C O2 91.404 123.018
!Torsions
AmbTrs C CT N3 H 0 180 0 0 0.0 0.0 0.0 0.0 6.0
AmbTrs CT C OH HO 0 180 0 0 0.00 14.5 0.00 0. 2.0
AmbTrs HC CT N3 H 0 0 0 0 0.00 16.93 0.00 0. 6.0
AmbTrs O2 C CT HC 0 0 0 0 0.00 14.50 0.00 0. 6.0
AmbTrs O2 C CT N3 0 0 0 0 0.00 14.50 0.00 0. 6.0
AmbTrs O2 C OH HO 0 0 0 0 0.00 14.5 0.00 0. 2.0
AmbTrs OH C CT HC 0 0 0 0 0.00 14.50 0.00 0. 6.0
AmbTrs OH C CT N3 0 0 0 0 0.00 14.50 0.00 0. 6.0

