%mem=1GB
%nprocshared=1
%chk=2_mm_30.chk
#p Amber=(SoftFirst,Print) geom=nocrowd nosymm

Title

0 1
C-C-+0.299289 -0.517002 0.052254 -0.163159
O-OH--0.289770 -1.660621 -0.716907 -0.001459
C-CT--0.035454 0.688513 -0.603061 0.478356
H-HC-+0.090426 0.648551 -0.890923 1.552330
H-HC-+0.095387 0.561164 -1.550288 -0.094530
N-N3--0.336253 1.891444 0.101472 0.098885
H-H-+0.142619 2.804534 -0.188431 0.455733
H-H-+0.128282 1.799083 0.997789 -0.373318
O-O2--0.308037 -0.512051 1.133529 -0.780963
H-HO-+0.213510 -2.421589 -0.259022 -0.446926

NonBon 3 1 0 0 0.000 0.000 0.500 0.000 0.000 -1.2
!SMARTFIELD FF
!Bonds
HrmStr1 C CT 294.154 1.509
HrmStr1 C O2 946.077 1.203
HrmStr1 C OH 431.528 1.351
HrmStr1 CT HC 358.048 1.096
HrmStr1 CT N3 380.823 1.452
HrmStr1 N3 H 506.009 1.011
HrmStr1 OH HO 566.757 0.968
!Angles
HrmBnd1 C CT HC 46.411 106.887
HrmBnd1 C CT N3 59.928 110.607
HrmBnd1 C OH HO 56.552 107.226
HrmBnd1 CT C O2 62.831 125.239
HrmBnd1 CT N3 H 52.602 110.709
HrmBnd1 H N3 H 47.092 108.625
HrmBnd1 HC CT HC 44.676 106.223
HrmBnd1 HC CT N3 52.453 112.936
HrmBnd1 OH C CT 67.917 111.715
HrmBnd1 OH C O2 91.404 123.018
!Torsions
AmbTrs C CT N3 H 0 180 0 0 0.0 0.0 0.0 0.0 6.0
AmbTrs CT C OH HO 0 180 0 0 0.00 14.5 0.00 0. 2.0
AmbTrs HC CT N3 H 0 0 0 0 0.00 16.93 0.00 0. 6.0
AmbTrs O2 C CT HC 0 0 0 0 0.00 14.50 0.00 0. 6.0
AmbTrs O2 C CT N3 0 0 0 0 0.00 14.50 0.00 0. 6.0
AmbTrs O2 C OH HO 0 0 0 0 0.00 14.5 0.00 0. 2.0
AmbTrs OH C CT HC 0 0 0 0 0.00 14.50 0.00 0. 6.0
AmbTrs OH C CT N3 0 0 0 0 0.00 14.50 0.00 0. 6.0

