14
but_qm.log	Energy:  -99475.4470294
C          1.95690       -0.12039        0.00000
H          2.74201        0.63726       -0.00000
H          2.10375       -0.74938       -0.88076
H          2.10375       -0.74938        0.88076
C          0.56696        0.51292       -0.00000
H          0.46175        1.16340       -0.87403
H          0.46175        1.16340        0.87403
C         -0.56696       -0.51292       -0.00000
H         -0.46175       -1.16340       -0.87403
H         -0.46175       -1.16340        0.87403
C         -1.95690        0.12039        0.00000
H         -2.10375        0.74938       -0.88076
H         -2.74201       -0.63726        0.00000
H         -2.10375        0.74938        0.88076
