%mem=1GB
%nprocshared=1
%chk=SmartField4gau.chk
#p Amber=(SoftFirst,Print) nosymm geom=nocrowd opt(MaxMicroiterations=2000) Freq

Title

0 1
C-C0--0.267532  1.956897  -0.120392  0.000000
H-H1-+0.083821  2.742005  0.637259  -0.000000
H-H2-+0.077363  2.103753  -0.749379  -0.880760
H-H3-+0.077360  2.103753  -0.749379  0.880760
C-C4--0.092257  0.566957  0.512915  -0.000000
H-H5-+0.060623  0.461751  1.163403  -0.874026
H-H6-+0.060622  0.461751  1.163404  0.874026
C-C7--0.092258  -0.566957  -0.512915  -0.000000
H-H8-+0.060627  -0.461751  -1.163403  -0.874026
H-H9-+0.060618  -0.461751  -1.163404  0.874026
C-C10--0.267532  -1.956897  0.120392  0.000000
H-H11-+0.077330  -2.103753  0.749379  -0.880760
H-H12-+0.083821  -2.742005  -0.637259  0.000000
H-H13-+0.077394  -2.103753  0.749379  0.880760

!Master function
NonBon 3 1 0 0 0.000 0.000 0.500 0.000 0.000 -1.2
!SMARTFIELD FF
!Bonds
HrmStr1 C0 H1  374.256 1.091
HrmStr1 C0 H2  371.343 1.092
HrmStr1 C0 H3  371.343 1.092
HrmStr1 C0 C4  305.382 1.527
HrmStr1 C4 H5  362.197 1.095
HrmStr1 C4 H6  362.197 1.095
HrmStr1 C4 C7  295.863 1.529
HrmStr1 C7 H8  362.197 1.095
HrmStr1 C7 H9  362.197 1.095
HrmStr1 C7 C10  305.382 1.527
HrmStr1 C10 H11  371.343 1.092
HrmStr1 C10 H12  374.256 1.091
HrmStr1 C10 H13  371.343 1.092
!Angles
HrmBnd1 H1 C0 H2  35.730 107.647
HrmBnd1 H1 C0 H3  35.730 107.647
HrmBnd1 H1 C0 C4  42.940 111.524
HrmBnd1 H2 C0 H3  36.173 107.491
HrmBnd1 H2 C0 C4  42.959 111.170
HrmBnd1 H3 C0 C4  42.959 111.170
HrmBnd1 C0 C4 H5  38.186 109.504
HrmBnd1 C0 C4 H6  38.186 109.504
HrmBnd1 C0 C4 C7  52.040 113.369
HrmBnd1 H5 C4 H6  27.861 105.974
HrmBnd1 H5 C4 C7  37.491 109.112
HrmBnd1 H6 C4 C7  37.491 109.112
HrmBnd1 C4 C7 H8  37.491 109.112
HrmBnd1 C4 C7 H9  37.491 109.112
HrmBnd1 C4 C7 C10  52.040 113.369
HrmBnd1 H8 C7 H9  27.861 105.974
HrmBnd1 H8 C7 C10  38.186 109.504
HrmBnd1 H9 C7 C10  38.186 109.504
HrmBnd1 C7 C10 H11  42.959 111.170
HrmBnd1 C7 C10 H12  42.940 111.524
HrmBnd1 C7 C10 H13  42.959 111.170
HrmBnd1 H11 C10 H12  35.730 107.647
HrmBnd1 H11 C10 H13  36.173 107.491
HrmBnd1 H12 C10 H13  35.730 107.647
!Torsions
AmbTrs H1 C0 C4 H5 0  0  0  0 0.00 0.00 3.20 0. 9.0
AmbTrs H1 C0 C4 H6 0  0  0  0 0.00 0.00 3.20 0. 9.0
AmbTrs H1 C0 C4 C7 0  0  0  0 0.00 0.00 2.10 0. 9.0
AmbTrs H2 C0 C4 H5 0  0  0  0 0.00 0.00 1.24 0. 9.0
AmbTrs H2 C0 C4 H6 0  0  0  0 0.00 0.00 1.91 0. 9.0
AmbTrs H2 C0 C4 C7 0  0  0  0 0.00 0.00 2.22 0. 9.0
AmbTrs H3 C0 C4 H5 0  0  0  0 0.00 0.00 1.91 0. 9.0
AmbTrs H3 C0 C4 H6 0  0  0  0 0.00 0.00 1.24 0. 9.0
AmbTrs H3 C0 C4 C7 0  0  0  0 0.00 0.00 2.22 0. 9.0
AmbTrs C0 C4 C7 H8 0  0  0  0 0.00 0.00 2.13 0. 9.0
AmbTrs C0 C4 C7 H9 0  0  0  0 0.00 0.00 2.13 0. 9.0
AmbTrs C0 C4 C7 C10 0  0  0  0 0.00 0.00 2.30 0. 9.0
AmbTrs H5 C4 C7 H8 0  0  0  0 0.00 0.00 3.42 0. 9.0
AmbTrs H5 C4 C7 H9 0  0  0  0 0.00 0.00 2.05 0. 9.0
AmbTrs H5 C4 C7 C10 0  0  0  0 0.00 0.00 2.13 0. 9.0
AmbTrs H6 C4 C7 H8 0  0  0  0 0.00 0.00 2.05 0. 9.0
AmbTrs H6 C4 C7 H9 0  0  0  0 0.00 0.00 3.42 0. 9.0
AmbTrs H6 C4 C7 C10 0  0  0  0 0.00 0.00 2.13 0. 9.0
AmbTrs C4 C7 C10 H11 0  0  0  0 0.00 0.00 2.22 0. 9.0
AmbTrs C4 C7 C10 H12 0  0  0  0 0.00 0.00 2.10 0. 9.0
AmbTrs C4 C7 C10 H13 0  0  0  0 0.00 0.00 2.22 0. 9.0
AmbTrs H8 C7 C10 H11 0  0  0  0 0.00 0.00 1.24 0. 9.0
AmbTrs H8 C7 C10 H12 0  0  0  0 0.00 0.00 3.20 0. 9.0
AmbTrs H8 C7 C10 H13 0  0  0  0 0.00 0.00 1.91 0. 9.0
AmbTrs H9 C7 C10 H11 0  0  0  0 0.00 0.00 1.91 0. 9.0
AmbTrs H9 C7 C10 H12 0  0  0  0 0.00 0.00 3.20 0. 9.0
AmbTrs H9 C7 C10 H13 0  0  0  0 0.00 0.00 1.24 0. 9.0

